data_image0
_chemical_formula_structural       Ir27Ti27C2H2O
_chemical_formula_sum              "Ir27 Ti27 C2 H2 O1"
_cell_length_a       8.94147844694317
_cell_length_b       10.32218313217163
_cell_length_c       29.75455035262328
_cell_angle_alpha    89.88392344405463
_cell_angle_beta     90.11192649798114
_cell_angle_gamma    89.94415204863431

_space_group_name_H-M_alt    "P 1"
_space_group_IT_number       1

loop_
  _space_group_symop_operation_xyz
  'x, y, z'

loop_
  _atom_site_type_symbol
  _atom_site_label
  _atom_site_symmetry_multiplicity
  _atom_site_fract_x
  _atom_site_fract_y
  _atom_site_fract_z
  _atom_site_occupancy
  Ir  Ir1       1.0  0.41935350888275574  0.4196407423704759  0.4740442209097691  1.0000
  Ir  Ir2       1.0  0.41935350888275574  0.08630740903714265  0.4740442209097691  1.0000
  Ir  Ir3       1.0  0.41935350888275574  0.7529740757038093  0.4740442209097691  1.0000
  Ir  Ir4       1.0  0.4193535088827558  0.4196407423704759  0.3740746576955206  1.0000
  Ir  Ir5       1.0  0.4193535088827558  0.08630740903714265  0.3740746576955206  1.0000
  Ir  Ir6       1.0  0.4193535088827558  0.7529740757038093  0.3740746576955206  1.0000
  Ir  Ir7       1.0  0.42440195659855473  0.4274091934298588  0.5690152809861572  1.0000
  Ir  Ir8       1.0  0.42593604370367255  0.08952548304093855  0.5696977535476463  1.0000
  Ir  Ir9       1.0  0.4185274964237199  0.7514010025666968  0.5688604278136121  1.0000
  Ir  Ir10      1.0  0.0860201755494224  0.4196407423704759  0.4740442209097691  1.0000
  Ir  Ir11      1.0  0.0860201755494224  0.08630740903714265  0.4740442209097691  1.0000
  Ir  Ir12      1.0  0.0860201755494224  0.7529740757038093  0.4740442209097691  1.0000
  Ir  Ir13      1.0  0.0860201755494224  0.4196407423704759  0.3740746576955206  1.0000
  Ir  Ir14      1.0  0.0860201755494224  0.08630740903714265  0.3740746576955206  1.0000
  Ir  Ir15      1.0  0.0860201755494224  0.7529740757038093  0.3740746576955206  1.0000
  Ir  Ir16      1.0  0.08412815376832658  0.4256270801561628  0.5688353733432738  1.0000
  Ir  Ir17      1.0  0.07930619510505174  0.0884101467236898  0.5696386686981617  1.0000
  Ir  Ir18      1.0  0.0877108160858816  0.750445035008798  0.5689002811091747  1.0000
  Ir  Ir19      1.0  0.7526868422160891  0.4196407423704759  0.4740442209097691  1.0000
  Ir  Ir20      1.0  0.7526868422160891  0.08630740903714265  0.4740442209097691  1.0000
  Ir  Ir21      1.0  0.7526868422160891  0.7529740757038093  0.4740442209097691  1.0000
  Ir  Ir22      1.0  0.7526868422160891  0.4196407423704759  0.3740746576955206  1.0000
  Ir  Ir23      1.0  0.7526868422160891  0.08630740903714265  0.3740746576955206  1.0000
  Ir  Ir24      1.0  0.7526868422160891  0.7529740757038093  0.3740746576955206  1.0000
  Ir  Ir25      1.0  0.7534963830725594  0.4204768532319092  0.5682622056671542  1.0000
  Ir  Ir26      1.0  0.7536803356550188  0.08076388560913558  0.5663947901365117  1.0000
  Ir  Ir27      1.0  0.7527047849487255  0.7489941027916734  0.5696427417154697  1.0000
  Ti  Ti1       1.0  0.5846931868811396  0.585902781057531  0.4240242808057094  1.0000
  Ti  Ti2       1.0  0.5846931868811396  0.25256944772419787  0.4240242808057094  1.0000
  Ti  Ti3       1.0  0.5846931868811396  0.9192361143908644  0.4240242808057094  1.0000
  Ti  Ti4       1.0  0.5846931868811396  0.5859027810575312  0.32405471759146093  1.0000
  Ti  Ti5       1.0  0.5846931868811396  0.25256944772419787  0.32405471759146093  1.0000
  Ti  Ti6       1.0  0.5846931868811396  0.9192361143908643  0.32405471759146093  1.0000
  Ti  Ti7       1.0  0.5855574527422172  0.5861684325577076  0.5287019073841634  1.0000
  Ti  Ti8       1.0  0.5860700446913799  0.2539512127691015  0.5279604426837833  1.0000
  Ti  Ti9       1.0  0.586017593073374  0.9135939503767584  0.5286164396156403  1.0000
  Ti  Ti10      1.0  0.2513598535478063  0.585902781057531  0.4240242808057094  1.0000
  Ti  Ti11      1.0  0.2513598535478063  0.25256944772419787  0.4240242808057094  1.0000
  Ti  Ti12      1.0  0.2513598535478063  0.9192361143908644  0.4240242808057094  1.0000
  Ti  Ti13      1.0  0.2513598535478063  0.5859027810575312  0.32405471759146093  1.0000
  Ti  Ti14      1.0  0.2513598535478063  0.25256944772419787  0.32405471759146093  1.0000
  Ti  Ti15      1.0  0.2513598535478063  0.9192361143908643  0.32405471759146093  1.0000
  Ti  Ti16      1.0  0.25288793513242125  0.5858184114020386  0.5284105477011342  1.0000
  Ti  Ti17      1.0  0.25251381223579883  0.25797655355428495  0.5322392378492745  1.0000
  Ti  Ti18      1.0  0.25238169986196085  0.9164093517225828  0.5284679242691681  1.0000
  Ti  Ti19      1.0  0.9180265202144727  0.5859027810575312  0.4240242808057094  1.0000
  Ti  Ti20      1.0  0.9180265202144727  0.25256944772419787  0.4240242808057094  1.0000
  Ti  Ti21      1.0  0.9180265202144727  0.9192361143908644  0.4240242808057094  1.0000
  Ti  Ti22      1.0  0.9180265202144727  0.5859027810575312  0.32405471759146093  1.0000
  Ti  Ti23      1.0  0.9180265202144727  0.25256944772419787  0.32405471759146093  1.0000
  Ti  Ti24      1.0  0.9180265202144727  0.9192361143908643  0.32405471759146093  1.0000
  Ti  Ti25      1.0  0.9206938048949481  0.5857085446303726  0.5288202261076375  1.0000
  Ti  Ti26      1.0  0.9185555283234594  0.253939198102031  0.5275585333353053  1.0000
  Ti  Ti27      1.0  0.9193122085663706  0.9121575367065662  0.5286197874285012  1.0000
  C   C1        1.0  0.25429095176633926  0.18655451812666493  0.6506550575788572  1.0000
  C   C2        1.0  0.2525598921014789  0.1835355740601275  0.6040583144624252  1.0000
  H   H1        1.0  0.2577465755737441  0.09944650590571968  0.671861451599408  1.0000
  H   H2        1.0  0.248501483636627  0.3702653608897252  0.6549710939003003  1.0000
  O   O1        1.0  0.2520040170690297  0.29553401088419196  0.675945282408539  1.0000
